<?xml version="1.0" encoding="UTF-8"?> <routes xmlns:xsi="http://www.w3.org/2001/XMLSchema-instance" xsi:noNamespaceSchemaLocation="http://sumo.dlr.de/xsd/routes_file.xsd">

    <vType id="CAV_0" accel="3.0" decel="5.0" maxSpeed="10.0" length="5" actionStepLength="0.1"/>
    <vType id="CAV_1" accel="3.0" decel="5.0" maxSpeed="13.0" length="5" actionStepLength="0.1"/>
    <vType id="Obstaclue" accel="0.00001" decel="0.00001" maxSpeed="0.00001" length="5"/>
    <!-- <vType id="non-CAV" accel="3.0" decel="5.0" maxSpeed="20.0" length="5" carFollowModel="IDM" laneChangeModel="LC2013" lcSpeedGain="0"/>
    <vType id="track" accel="3.0" decel="5.0" maxSpeed="5.0" length="10" carFollowModel="IDM" laneChangeModel="LC2013" lcSpeedGain="0"/> -->
    
    <route id="main" edges="main"/>

    <!-- 障害物　-->
    <vehicle id="obstacle_0" type="Obstaclue" route="main" depart="0" departPos="100" departSpeed="0.0" departLane="0"/>
    <!-- <vehicle id="obstacle_1" type="Obstaclue" route="main" depart="0" departPos="100" departSpeed="0.0" departLane="1"/> -->

    <flow id="1" begin="0" end="50" number="10" route="main" departLane="1" type="CAV_1"/>
    <flow id="2" begin="2" end="50" number="10" route="main" departLane="2" type="CAV_1"/>
    <flow id="0" begin="5" end="50" number="10" route="main" departLane="0" type="CAV_0"/>
</routes> 
