<configuration>
<input>
    <net-file value="twoLane.net.xml"/>
    <route-files value="twoLane.rou.xml"/>
    <collision.action value="none"/>
</input>
<time>
    <step-length value="0.1"/>
    <begin value="0.0"/>
    <end value="6000.0"/>
</time>
</configuration>

